LAMMPS (29 Aug 2024 - Update 1)
# Test harmonic bonds approach using graphimine_LJ.in template
units       lj
atom_style  molecular
boundary    p p p

read_data   test_G5_phi01.data
Reading data file ...
  orthogonal box = (-27.521537 -27.521537 -27.521537) to (27.521537 27.521537 27.521537)
  reading atoms ...
  31850 atoms
  scanning bonds ...
  orthogonal box = (-27.521537 -27.521537 -27.521537) to (27.521537 27.521537 27.521537)
  reading bonds ...
  84000 bonds
Finding 1-2 1-3 1-4 neighbors ...
     6 = max # of 1-2 neighbors
    30 = max # of 1-3 neighbors
   180 = max # of 1-4 neighbors
    36 = max # of special neighbors
mass        * 1.0

# Non-bonded: WCA potential
pair_style      lj/cut 1.12246          # WCA = purely repulsive
pair_modify     shift yes
pair_coeff      * * 1.0 1.0 1.12246

# Updated neighbour settings
neighbor     1.0 bin
neigh_modify every 1 delay 0 check yes

# Communication for large systems
comm_modify cutoff 3.0

# Bonded: harmonic springs  U = k (r − r0)^2
bond_style   harmonic
bond_coeff   * 4225.0 1.0                      # k = 4225 (C=N imine bonds), r0 = 1.0

# Integration & thermostat
fix     brown all langevin 1.0 1.0 1.0 12345
fix     int   all nve
timestep 0.002

# I/O and monitoring
thermo_style custom step temp pe ke etotal press
thermo       1000

# Minimisation, then BD run
min_style    cg
minimize     1.0e-4 1.0e-6  5000 50000

CITE-CITE-CITE-CITE-CITE-CITE-CITE-CITE-CITE-CITE-CITE-CITE-CITE

Your simulation uses code contributions which should be cited:

- Type Label Framework: https://doi.org/10.1021/acs.jpcb.3c08419

@Article{Gissinger24,
 author = {Jacob R. Gissinger, Ilia Nikiforov, Yaser Afshar, Brendon Waters, Moon-ki Choi, Daniel S. Karls, Alexander Stukowski, Wonpil Im, Hendrik Heinz, Axel Kohlmeyer, and Ellad B. Tadmor},
 title = {Type Label Framework for Bonded Force Fields in LAMMPS},
 journal = {J. Phys. Chem. B},
 year =    2024,
 volume =  128,
 number =  13,
 pages =   {3282–-3297}
}

CITE-CITE-CITE-CITE-CITE-CITE-CITE-CITE-CITE-CITE-CITE-CITE-CITE

Generated 0 of 0 mixed pair_coeff terms from geometric mixing rule
Step          Temp          PotEng         KinEng         TotEng         Press
0   0              11388109       0              11388109       8700110.5
Loop time of 0.579195 on 1 procs for 153 steps with 31850 atoms

Minimization stats:
  Stopping criterion = energy tolerance
  Energy initial, next-to-last, final =
  Force two-norm initial, final = 2.7231745e+12 2985.1404
  Force max component initial, final = 1.7980214e+11 493.64754
  Final line search alpha, max atom move = 0.00019714107 0.097318202
  Iterations, force evaluations = 153 325

reset_timestep 0

dump         traj all custom 1000 harmonic_test.lammpstrj id mol type x y z
dump_modify  traj sort id

run     20000
Generated 0 of 0 mixed pair_coeff terms from geometric mixing rule
Step          Temp          PotEng         KinEng         TotEng         Press
0   0              10.98399       0              10.98399       0.81596121
Averages over the last 11 of 21 rows, steps 10000 to 20000:
Temp PotEng KinEng TotEng Press
0.998234 1.69698 1.4973 3.19428 0.00858899
Loop time of 31.3458 on 1 procs for 20000 steps with 31850 atoms

write_data  harmonic_test_final.data
System init for write_data ...
Generated 0 of 0 mixed pair_coeff terms from geometric mixing rule
