read_data   structure.data
Reading data file ...
  orthogonal box = (-27.521537 -27.521537 -27.521537) to (27.521537 27.521537 27.521537)
  reading atoms ...
  31850 atoms
  scanning bonds ...
  orthogonal box = (-27.521537 -27.521537 -27.521537) to (27.521537 27.521537 27.521537)
  reading bonds ...
  84000 bonds
Finding 1-2 1-3 1-4 neighbors ...
     6 = max # of 1-2 neighbors
    30 = max # of 1-3 neighbors
   180 = max # of 1-4 neighbors
    36 = max # of special neighbors
mass        * 1.0

# Communication for large systems
comm_modify cutoff 3.0

# WCA potential
pair_style      lj/cut 1.12246
pair_modify     shift yes
pair_coeff      * * 1.0 1.0 1.12246

neighbor     1.0 bin
neigh_modify every 1 delay 0 check yes

# Strong harmonic bonds for rigidity
bond_style   harmonic
bond_coeff   * 4225.0 1.0

# Langevin thermostat + NVE integration
fix     brown all langevin 1.0 1.0 1.0 58291
fix     int   all nve
timestep 0.002

# Minimal thermo output
thermo_style custom step temp pe ke etotal press
thermo       1000

# Short minimization for test
min_style    cg
minimize     1.0e-4 1.0e-6  1000 5000

CITE-CITE-CITE-CITE-CITE-CITE-CITE-CITE-CITE-CITE-CITE-CITE-CITE

Your simulation uses code contributions which should be cited:

- Type Label Framework: https://doi.org/10.1021/acs.jpcb.3c08419

@Article{Gissinger24,
 author = {Jacob R. Gissinger, Ilia Nikiforov, Yaser Afshar, Brendon Waters, Moon-ki Choi, Daniel S. Karls, Alexander Stukowski, Wonpil Im, Hendrik Heinz, Axel Kohlmeyer, and Ellad B. Tadmor},
 title = {Type Label Framework for Bonded Force Fields in LAMMPS},
 journal = {J. Phys. Chem. B},
 year =    2024,
 volume =  128,
 number =  13,
 pages =   {3282â€“-3297}
}

CITE-CITE-CITE-CITE-CITE-CITE-CITE-CITE-CITE-CITE-CITE-CITE-CITE

Generated 0 of 0 mixed pair_coeff terms from geometric mixing rule
Step          Temp          PotEng         KinEng         TotEng         Press
0   0              15533315       0              15533315       11866840
Loop time of 0.38967 on 1 procs for 106 steps with 31850 atoms

Minimization stats:
  Stopping criterion = energy tolerance
  Energy initial, next-to-last, final =
  Force two-norm initial, final = 3.3284265e+12 38244.481
  Force max component initial, final = 1.7980214e+11 10241.906
  Final line search alpha, max atom move = 8.1084959e-06 0.083046455
  Iterations, force evaluations = 106 229

reset_timestep 0

# Trajectory output
dump         traj all custom 1000 sim.lammpstrj id mol type x y z
dump_modify  traj sort id

# Short test run
run     5000
Generated 0 of 0 mixed pair_coeff terms from geometric mixing rule
Step          Temp          PotEng         KinEng         TotEng         Press
0   0              1.9978404      0              1.9978404      0.9972316
Loop time of 7.95512 on 1 procs for 5000 steps with 31850 atoms

# Write final configuration
write_data  sim_final.data
System init for write_data ...
Generated 0 of 0 mixed pair_coeff terms from geometric mixing rule
